/*--------------------------------*- C++ -*----------------------------------*\
| =========                 |                                                 |
| \\      /  F ield         | OpenFOAM: The Open Source CFD Toolbox           |
|  \\    /   O peration     | Version:  v1906                                 |
|   \\  /    A nd           | Web:      www.OpenFOAM.com                      |
|    \\/     M anipulation  |                                                 |
\*---------------------------------------------------------------------------*/
FoamFile
{
    version     2.0;
    format      ascii;
    class       polyBoundaryMesh;
    location    "constant/polyMesh";
    object      boundary;
}
// * * * * * * * * * * * * * * * * * * * * * * * * * * * * * * * * * * * * * //

5
(
	xu
	{
		type patch;
		nFaces 100;
		startFace 19800;
	}
	xd
	{
		type patch;
		nFaces 100;
		startFace 19900;
	}
	yu
	{
		type patch;
		nFaces 100;
		startFace 20000;
	}
	yd
	{
		type patch;
		nFaces 100;
		startFace 20100;
	}
	zu
	{
		type empty;
		inGroups 1(empty);
		nFaces 20000;
		startFace 20200;
	}
)